
Circuit: *title: lab 1 simulation

Doing analysis at TEMP = 27.000000 and TNOM = 27.000000


No. of Data Rows : 1
********************************************
Operating point
********************************************
op_TAB
@gb[i] = -2.22248e-04
@id[current] = 1.024758e-03
@r1[i] = -2.12029e-04
@r2[i] = -2.22248e-04
@r3[i] = -1.02191e-05
@r4[i] = -1.19181e-03
@r5[i] = 1.247007e-03
@r6[i] = 9.797777e-04
@r7[i] = 9.797777e-04
v(1) = 8.177329e+00
v(2) = 3.037449e+00
v(3) = 1.012137e+00
v(4) = 1.178728e+01
v(5) = 7.510185e+00
v(6) = 7.964596e+00
v(7) = 7.996101e+00
v(8) = 1.012137e+00
hc#branch = 4.498058e-05
va#branch = -2.12029e-04
vaux#branch = 9.797777e-04
op_END
ngspice-31 done
