
Circuit: *title: lab 2 simulation

Doing analysis at TEMP = 27.000000 and TNOM = 27.000000


No. of Data Rows : 1
********************************************
Transient analysis
********************************************
Doing analysis at TEMP = 27.000000 and TNOM = 27.000000


Initial Transient Solution
--------------------------

Node                                   Voltage
----                                   -------
1                                            0
2                                 -5.46596e-13
3                                 -1.71416e-12
5                                 -4.65648e-13
6                                      8.67179
9                                            0
7                                  1.90189e-13
8                                  2.85235e-13
hd#branch                           0.00285235
vaux#branch                       -9.20071e-17
vs#branch                         -5.44787e-16


No. of Data Rows : 2008

The file "trans2.ps" may be printed on a postscript printer.
trans_FIG
********************************************
Frequency analysis
********************************************
Doing analysis at TEMP = 27.000000 and TNOM = 27.000000


No. of Data Rows : 7001

The file "acm.ps" may be printed on a postscript printer.
acm_FIG

The file "acp.ps" may be printed on a postscript printer.
acp_FIG
ngspice-31 done
