
Circuit: *title: lab 2 simulation

Doing analysis at TEMP = 27.000000 and TNOM = 27.000000


No. of Data Rows : 1
********************************************
Operating point
********************************************
op_TAB
@c1[i] = 0.000000e+00
@gb[i] = -2.22248e-04
@r1[i] = 2.120292e-04
@r2[i] = 2.222483e-04
@r3[i] = -1.02191e-05
@r4[i] = -1.19181e-03
@r5[i] = -2.22248e-04
@r6[i] = 9.797777e-04
@r7[i] = 9.797777e-04
v(1) = 5.139880e+00
v(2) = 4.927147e+00
v(3) = 4.472736e+00
v(5) = 4.958652e+00
v(6) = 5.634336e+00
v(7) = -2.02531e+00
v(8) = -3.03745e+00
v(9) = 0.000000e+00
hd#branch = -9.79778e-04
vaux#branch = 9.797777e-04
vs#branch = -2.12029e-04
op_END
ngspice-31 done
